 Case_ID  AeroDyn15  AeroDyn15   DLC    DLC       DLC      ElastoDyn      ElastoDyn           ElastoDyn           ElastoDyn       ElastoDyn      ElastoDyn        Fst    Fst    HydroDyn  HydroDyn   HydroDyn   HydroDyn  HydroDyn                                                        InflowWind                                                                                                             InflowWind                                                         InflowWind    InflowWind      InflowWind      InflowWind   ServoDyn   ServoDyn   ServoDyn 
          AFAeroMod   WakeMod   Label  MeanWS   WindSeed    Azimuth        BlPitch1            BlPitch2            BlPitch3         NacYaw        RotSpeed        TMax  TStart  WaveDir    WaveHs   WavePkShp  WaveSeed1   WaveTp                                                        FileName_BTS                                                                                                           Filename_Uni                                                      PropagationDir  RefHt_Uni       RefLength        WindType   TPitManS1  TPitManS2  TPitManS3 
    0         2          1       1.1    10.0   1501552846      0      0.8143299240867572  0.8143299240867572  0.8143299240867572     0.0     11.633938628220589  605.0   5.0      0.0       1.54       0.0     304524126    7.65    /home/nriccobo/WEIS/examples/05_IEA-3.4-130-RWT_testfromgit/temp/iea34/wind/IEA34_NTM_U10.000000_Seed1501552846.0.bts  /home/nriccobo/WEIS/examples/05_IEA-3.4-130-RWT_testfromgit/temp/iea34/wind/IEA34_NTM_U10.000000_Seed1501552846.0.bts       0.0          110.0     129.81704224457798      3          9999       9999       9999   
